iidm/iidm-xml-converter/src/test/resources/lilleNodeBreaker.xiidm
<?xml version="1.0" encoding="ISO-8859-1" standalone="no"?>
<network xmlns="http://www.itesla_project.eu/schema/iidm/1_0" xmlns:ld="http://www.itesla_project.eu/schema/iidm/ext/load_detail/1_0" id="LILLE_01_02_2018_23h10_0_enrichi.arc" caseDate="2018-02-01T23:10:00.000+01:00" forecastDistance="0" sourceFormat="NF">
  <substation id=".ACHE" country="BE">
    <property name="paysCvg" value="BELGIQUE"/>
    <property name="regionCvg" value="BELGIQUE"/>
    <voltageLevel id=".ACHEP7" nominalV="380" lowVoltageLimit="390" highVoltageLimit="420.00003051757812" topologyKind="NODE_BREAKER">
      <nodeBreakerTopology nodeCount="12">
        <busbarSection id=".ACHEP7_1" name="1" node="0" v="409.12530517578125" angle="23.232449622144198"/>
        <busbarSection id=".ACHEP7_2" name="2" node="1" v="409.12530517578125" angle="23.232449622144198"/>
        <switch id=".ACHEP7_.ACHE   7SNCB .1  SA.1" name=".ACHE   7SNCB .1  SA.1" kind="DISCONNECTOR" retained="false" open="false" node1="0" node2="8"/>
        <switch id=".ACHEP7_.ACHE   7LONNY.1  SA.1" name=".ACHE   7LONNY.1  SA.1" kind="DISCONNECTOR" retained="false" open="false" node1="0" node2="6"/>
        <switch id=".ACHEP7_.ACHE   7.GRAM.1  SA.1" name=".ACHE   7.GRAM.1  SA.1" kind="DISCONNECTOR" retained="false" open="false" node1="0" node2="4"/>
        <switch id=".ACHEP7_.ACHE   7TR741    SA.1" name=".ACHE   7TR741    SA.1" kind="DISCONNECTOR" retained="false" open="true" node1="0" node2="10"/>
        <switch id=".ACHEP7_.ACHE   7COUPL.1  SA.1" name=".ACHE   7COUPL.1  SA.1" kind="DISCONNECTOR" retained="false" open="false" node1="3" node2="0"/>
        <switch id=".ACHEP7_.ACHE   7SNCB .1  SA.2" name=".ACHE   7SNCB .1  SA.2" kind="DISCONNECTOR" retained="false" open="true" node1="1" node2="8"/>
        <switch id=".ACHEP7_.ACHE   7LONNY.1  SA.2" name=".ACHE   7LONNY.1  SA.2" kind="DISCONNECTOR" retained="false" open="true" node1="1" node2="6"/>
        <switch id=".ACHEP7_.ACHE   7.GRAM.1  SA.2" name=".ACHE   7.GRAM.1  SA.2" kind="DISCONNECTOR" retained="false" open="true" node1="1" node2="4"/>
        <switch id=".ACHEP7_.ACHE   7TR741    SA.2" name=".ACHE   7TR741    SA.2" kind="DISCONNECTOR" retained="false" open="true" node1="1" node2="10"/>
        <switch id=".ACHEP7_.ACHE   7COUPL.1  SA.2" name=".ACHE   7COUPL.1  SA.2" kind="DISCONNECTOR" retained="false" open="false" node1="1" node2="2"/>
        <switch id=".ACHEP7_.ACHE   7COUPL.1  DJ" name=".ACHE   7COUPL.1  DJ" kind="BREAKER" retained="true" open="false" node1="2" node2="3"/>
        <switch id=".ACHEP7_.ACHE   7.GRAM.1  DJ" name=".ACHE   7.GRAM.1  DJ" kind="BREAKER" retained="true" open="false" node1="4" node2="5"/>
        <switch id=".ACHEP7_.ACHE   7LONNY.1  DJ" name=".ACHE   7LONNY.1  DJ" kind="BREAKER" retained="true" open="false" node1="6" node2="7"/>
        <switch id=".ACHEP7_.ACHE   7SNCB .1  DJ" name=".ACHE   7SNCB .1  DJ" kind="BREAKER" retained="true" open="false" node1="8" node2="9"/>
        <switch id=".ACHEP7_.ACHE   7TR741    DJ" name=".ACHE   7TR741    DJ" kind="BREAKER" retained="true" open="true" node1="10" node2="11"/>
      </nodeBreakerTopology>
      <load id=".ACHE7SNCB" loadType="UNDEFINED" p0="0.37576743960380554" q0="-3.7519996166229248" node="9" p="0.37576743960380554" q="-3.7519996166229248"/>
      <load id=".ACHE7Y741" loadType="UNDEFINED" p0="0" q0="0" node="11" p="0" q="0"/>
    </voltageLevel>
  </substation>
  <substation id=".ANDU" country="BE">
    <property name="paysCvg" value="BELGIQUE"/>
    <property name="regionCvg" value="BELGIQUE"/>
    <voltageLevel id=".ANDU77" nominalV="380" lowVoltageLimit="390" highVoltageLimit="420.00003051757812" topologyKind="NODE_BREAKER">
      <nodeBreakerTopology nodeCount="5">
        <busbarSection id=".ANDU77_1" name="1" node="0" v="403.74765014648438" angle="24.17818835047543"/>
        <switch id=".ANDU77_.ANDU7TR751SA.1F" name=".ANDU7TR751SA.1F" kind="DISCONNECTOR" retained="false" open="false" fictitious="true" node1="0" node2="1"/>
        <switch id=".ANDU77_.ANDU7Z.AND.1SA.1F" name=".ANDU7Z.AND.1SA.1F" kind="DISCONNECTOR" retained="false" open="false" fictitious="true" node1="0" node2="3"/>
        <switch id=".ANDU77_.ANDU   7TR751    DJ" name=".ANDU   7TR751    DJ" kind="BREAKER" retained="true" open="false" node1="1" node2="2"/>
        <switch id=".ANDU77_.ANDU7Z.AND.1DJF" name=".ANDU7Z.AND.1DJF" kind="BREAKER" retained="true" open="false" fictitious="true" node1="3" node2="4"/>
      </nodeBreakerTopology>
      <load id=".ANDU7TR751" loadType="UNDEFINED" p0="373.83389282226562" q0="55.730754852294922" node="2" p="373.83389282226562" q="55.730754852294922"/>
    </voltageLevel>
  </substation>
  <substation id=".AUBA" country="BE">
    <property name="paysCvg" value="BELGIQUE"/>
    <property name="regionCvg" value="BELGIQUE"/>
    <voltageLevel id=".AUBAP6" nominalV="225" lowVoltageLimit="220" highVoltageLimit="260" topologyKind="NODE_BREAKER">
      <nodeBreakerTopology nodeCount="20">
        <busbarSection id=".AUBAP6_1" name="1" node="0" v="237.06787109375" angle="20.539420438076768"/>
        <busbarSection id=".AUBAP6_2" name="2" node="1" v="237.06787109375" angle="20.539420438076768"/>
        <switch id=".AUBAP6_.AUBA6INJ.1SA.1" name=".AUBA6INJ.1SA.1" kind="DISCONNECTOR" retained="false" open="false" node1="0" node2="8"/>
        <switch id=".AUBAP6_.AUBA6INJ.2SA.1" name=".AUBA6INJ.2SA.1" kind="DISCONNECTOR" retained="false" open="true" node1="0" node2="10"/>
        <switch id=".AUBAP6_.AUBA   6TR761    SA.1" name=".AUBA   6TR761    SA.1" kind="DISCONNECTOR" retained="false" open="false" node1="0" node2="2"/>
        <switch id=".AUBAP6_.AUBA   6AT762    SA.1" name=".AUBA   6AT762    SA.1" kind="DISCONNECTOR" retained="false" open="true" node1="0" node2="4"/>
        <switch id=".AUBAP6_.AUBA   6MOULA.1  SA.1" name=".AUBA   6MOULA.1  SA.1" kind="DISCONNECTOR" retained="false" open="true" node1="0" node2="14"/>
        <switch id=".AUBAP6_.AUBA   6M.MA5.1  SA.1" name=".AUBA   6M.MA5.1  SA.1" kind="DISCONNECTOR" retained="false" open="false" node1="0" node2="12"/>
        <switch id=".AUBAP6_.AUBA   6.SOTE.1  SA.1" name=".AUBA   6.SOTE.1  SA.1" kind="DISCONNECTOR" retained="false" open="true" node1="0" node2="18"/>
        <switch id=".AUBAP6_.AUBA   6SANEM.1  SA.1" name=".AUBA   6SANEM.1  SA.1" kind="DISCONNECTOR" retained="false" open="true" node1="0" node2="16"/>
        <switch id=".AUBAP6_.AUBA   6COUPL    SA.1" name=".AUBA   6COUPL    SA.1" kind="DISCONNECTOR" retained="false" open="false" node1="7" node2="0"/>
        <switch id=".AUBAP6_.AUBA6INJ.1SA.2" name=".AUBA6INJ.1SA.2" kind="DISCONNECTOR" retained="false" open="true" node1="1" node2="8"/>
        <switch id=".AUBAP6_.AUBA6INJ.2SA.2" name=".AUBA6INJ.2SA.2" kind="DISCONNECTOR" retained="false" open="false" node1="1" node2="10"/>
        <switch id=".AUBAP6_.AUBA   6COUPL    SA.2" name=".AUBA   6COUPL    SA.2" kind="DISCONNECTOR" retained="false" open="false" node1="1" node2="6"/>
        <switch id=".AUBAP6_.AUBA   6TR761    SA.2" name=".AUBA   6TR761    SA.2" kind="DISCONNECTOR" retained="false" open="true" node1="1" node2="2"/>
        <switch id=".AUBAP6_.AUBA   6AT762    SA.2" name=".AUBA   6AT762    SA.2" kind="DISCONNECTOR" retained="false" open="false" node1="1" node2="4"/>
        <switch id=".AUBAP6_.AUBA   6MOULA.1  SA.2" name=".AUBA   6MOULA.1  SA.2" kind="DISCONNECTOR" retained="false" open="false" node1="1" node2="14"/>
        <switch id=".AUBAP6_.AUBA   6M.MA5.1  SA.2" name=".AUBA   6M.MA5.1  SA.2" kind="DISCONNECTOR" retained="false" open="true" node1="1" node2="12"/>
        <switch id=".AUBAP6_.AUBA   6.SOTE.1  SA.2" name=".AUBA   6.SOTE.1  SA.2" kind="DISCONNECTOR" retained="false" open="false" node1="1" node2="18"/>
        <switch id=".AUBAP6_.AUBA   6SANEM.1  SA.2" name=".AUBA   6SANEM.1  SA.2" kind="DISCONNECTOR" retained="false" open="false" node1="1" node2="16"/>
        <switch id=".AUBAP6_.AUBA   6TR761    DJ" name=".AUBA   6TR761    DJ" kind="BREAKER" retained="true" open="false" node1="2" node2="3"/>
        <switch id=".AUBAP6_.AUBA   6AT762    DJ" name=".AUBA   6AT762    DJ" kind="BREAKER" retained="true" open="false" node1="4" node2="5"/>
        <switch id=".AUBAP6_.AUBA   6COUPL    DJ" name=".AUBA   6COUPL    DJ" kind="BREAKER" retained="true" open="false" node1="6" node2="7"/>
        <switch id=".AUBAP6_.AUBA6INJ.1DJ" name=".AUBA6INJ.1DJ" kind="BREAKER" retained="true" open="false" node1="8" node2="9"/>
        <switch id=".AUBAP6_.AUBA6INJ.2DJ" name=".AUBA6INJ.2DJ" kind="BREAKER" retained="true" open="false" node1="10" node2="11"/>
        <switch id=".AUBAP6_.AUBA   6M.MA5.1  DJ" name=".AUBA   6M.MA5.1  DJ" kind="BREAKER" retained="true" open="false" node1="12" node2="13"/>
        <switch id=".AUBAP6_.AUBA   6MOULA.1  DJ" name=".AUBA   6MOULA.1  DJ" kind="BREAKER" retained="true" open="false" node1="14" node2="15"/>
        <switch id=".AUBAP6_.AUBA   6SANEM.1  DJ" name=".AUBA   6SANEM.1  DJ" kind="BREAKER" retained="true" open="true" node1="16" node2="17"/>
        <switch id=".AUBAP6_.AUBA   6.SOTE.1  DJ" name=".AUBA   6.SOTE.1  DJ" kind="BREAKER" retained="true" open="false" node1="18" node2="19"/>
      </nodeBreakerTopology>
      <load id=".AUBA6INJ1" loadType="UNDEFINED" p0="1.2988804578781128" q0="130.77577209472656" node="9" p="1.2988804578781128" q="130.77577209472656"/>
      <load id=".AUBA6INJ2" loadType="UNDEFINED" p0="1.2988804578781128" q0="130.77577209472656" node="11" p="1.2988804578781128" q="130.77577209472656"/>
    </voltageLevel>
    <voltageLevel id=".AUBAP7" nominalV="380" lowVoltageLimit="390" highVoltageLimit="420.00003051757812" topologyKind="NODE_BREAKER">
      <nodeBreakerTopology nodeCount="8">
        <busbarSection id=".AUBAP7_1" name="1" node="0" v="411.25390625" angle="22.399134100004087"/>
        <busbarSection id=".AUBAP7_2" name="2" node="1" v="411.25390625" angle="22.399134100004087"/>
        <switch id=".AUBAP7_.AUBA   7.BRUM.1  SA.1" name=".AUBA   7.BRUM.1  SA.1" kind="DISCONNECTOR" retained="false" open="false" node1="0" node2="6"/>
        <switch id=".AUBAP7_.AUBA   7AT761    SA.1" name=".AUBA   7AT761    SA.1" kind="DISCONNECTOR" retained="false" open="false" node1="0" node2="2"/>
        <switch id=".AUBAP7_.AUBA   7AT762    SA.1" name=".AUBA   7AT762    SA.1" kind="DISCONNECTOR" retained="false" open="false" node1="0" node2="4"/>
        <switch id=".AUBAP7_.AUBA   7.BRUM.1  SA.2" name=".AUBA   7.BRUM.1  SA.2" kind="DISCONNECTOR" retained="false" open="false" node1="1" node2="6"/>
        <switch id=".AUBAP7_.AUBA   7AT761    SA.2" name=".AUBA   7AT761    SA.2" kind="DISCONNECTOR" retained="false" open="true" node1="1" node2="2"/>
        <switch id=".AUBAP7_.AUBA7AT762SA.2" name=".AUBA7AT762SA.2" kind="DISCONNECTOR" retained="false" open="true" node1="1" node2="4"/>
        <switch id=".AUBAP7_.AUBA   7AT761    DJ" name=".AUBA   7AT761    DJ" kind="BREAKER" retained="true" open="false" node1="2" node2="3"/>
        <switch id=".AUBAP7_.AUBA   7AT762    DJ" name=".AUBA   7AT762    DJ" kind="BREAKER" retained="true" open="false" node1="4" node2="5"/>
        <switch id=".AUBAP7_.AUBA   7.BRUM.1  DJ" name=".AUBA   7.BRUM.1  DJ" kind="BREAKER" retained="true" open="false" node1="6" node2="7"/>
      </nodeBreakerTopology>
    </voltageLevel>
    <twoWindingsTransformer id=".AUBAY761" r="1" x="74.010002136230469" g="0" b="0" ratedU1="225" ratedU2="380" voltageLevelId1=".AUBAP6" node1="3" voltageLevelId2=".AUBAP7" node2="3" p1="-74.082740783691406" q1="-0.36504855751991272" p2="74.115264892578125" q2="2.7721407413482666">
      <ratioTapChanger lowTapPosition="0" tapPosition="4" loadTapChangingCapabilities="false" regulating="false">
        <step r="0" x="0" g="0" b="0" rho="1.0590000152587891"/>
        <step r="0" x="0" g="0" b="0" rho="1.0499999523162842"/>
        <step r="0" x="0" g="0" b="0" rho="1.0429999828338623"/>
        <step r="0" x="0" g="0" b="0" rho="1.0329999923706055"/>
        <step r="0" x="0" g="0" b="0" rho="1.0260000228881836"/>
        <step r="0" x="0" g="0" b="0" rho="1.0169999599456787"/>
        <step r="0" x="0" g="0" b="0" rho="1.0080000162124634"/>
        <step r="0" x="0" g="0" b="0" rho="1"/>
        <step r="0" x="0" g="0" b="0" rho="0.99099999666213989"/>
        <step r="0" x="0" g="0" b="0" rho="0.98199999332427979"/>
        <step r="0" x="0" g="0" b="0" rho="0.97500002384185791"/>
        <step r="0" x="0" g="0" b="0" rho="0.9649999737739563"/>
        <step r="0" x="0" g="0" b="0" rho="0.95800000429153442"/>
        <step r="0" x="0" g="0" b="0" rho="0.94900000095367432"/>
        <step r="0" x="0" g="0" b="0" rho="0.93999999761581421"/>
        <step r="0" x="0" g="0" b="0" rho="0.9309999942779541"/>
        <step r="0" x="0" g="0" b="0" rho="0.92400002479553223"/>
        <step r="0" x="0" g="0" b="0" rho="0.91399997472763062"/>
        <step r="0" x="0" g="0" b="0" rho="0.90700000524520874"/>
        <step r="0" x="0" g="0" b="0" rho="0.89800000190734863"/>
        <step r="0" x="0" g="0" b="0" rho="0.8880000114440918"/>
        <step r="0" x="0" g="0" b="0" rho="0.88099998235702515"/>
        <step r="0" x="0" g="0" b="0" rho="0.87199997901916504"/>
      </ratioTapChanger>
      <currentLimits1 permanentLimit="9999"/>
      <currentLimits2 permanentLimit="9999">
        <temporaryLimit name="IT20" acceptableDuration="1200" value="9999"/>
        <temporaryLimit name="IT5" acceptableDuration="300"/>
      </currentLimits2>
    </twoWindingsTransformer>
    <twoWindingsTransformer id=".AUBAY762" r="0.90999996662139893" x="72.199996948242188" g="0" b="0" ratedU1="225" ratedU2="380" voltageLevelId1=".AUBAP6" node1="5" voltageLevelId2=".AUBAP7" node2="5" p1="-75.940475463867188" q1="-0.44313228130340576" p2="75.971572875976562" q2="2.9106271266937256">
      <ratioTapChanger lowTapPosition="0" tapPosition="4" loadTapChangingCapabilities="false" regulating="false">
        <step r="0" x="0" g="0" b="0" rho="1.0590000152587891"/>
        <step r="0" x="0" g="0" b="0" rho="1.0499999523162842"/>
        <step r="0" x="0" g="0" b="0" rho="1.0429999828338623"/>
        <step r="0" x="0" g="0" b="0" rho="1.0329999923706055"/>
        <step r="0" x="0" g="0" b="0" rho="1.0260000228881836"/>
        <step r="0" x="0" g="0" b="0" rho="1.0169999599456787"/>
        <step r="0" x="0" g="0" b="0" rho="1.0080000162124634"/>
        <step r="0" x="0" g="0" b="0" rho="1"/>
        <step r="0" x="0" g="0" b="0" rho="0.99099999666213989"/>
        <step r="0" x="0" g="0" b="0" rho="0.98199999332427979"/>
        <step r="0" x="0" g="0" b="0" rho="0.97500002384185791"/>
        <step r="0" x="0" g="0" b="0" rho="0.9649999737739563"/>
        <step r="0" x="0" g="0" b="0" rho="0.95800000429153442"/>
        <step r="0" x="0" g="0" b="0" rho="0.94900000095367432"/>
        <step r="0" x="0" g="0" b="0" rho="0.93999999761581421"/>
        <step r="0" x="0" g="0" b="0" rho="0.9309999942779541"/>
        <step r="0" x="0" g="0" b="0" rho="0.92400002479553223"/>
        <step r="0" x="0" g="0" b="0" rho="0.91399997472763062"/>
        <step r="0" x="0" g="0" b="0" rho="0.90700000524520874"/>
        <step r="0" x="0" g="0" b="0" rho="0.89800000190734863"/>
        <step r="0" x="0" g="0" b="0" rho="0.8880000114440918"/>
        <step r="0" x="0" g="0" b="0" rho="0.88099998235702515"/>
        <step r="0" x="0" g="0" b="0" rho="0.87199997901916504"/>
      </ratioTapChanger>
      <currentLimits1 permanentLimit="9999"/>
      <currentLimits2 permanentLimit="9999">
        <temporaryLimit name="IT20" acceptableDuration="1200" value="9999"/>
        <temporaryLimit name="IT5" acceptableDuration="300"/>
      </currentLimits2>
    </twoWindingsTransformer>
  </substation>
  <substation id=".AVEL" country="BE">
    <property name="paysCvg" value="BELGIQUE"/>
    <property name="regionCvg" value="BELGIQUE"/>
    <voltageLevel id=".AVELP7" nominalV="380" lowVoltageLimit="390" highVoltageLimit="420.00003051757812" topologyKind="NODE_BREAKER">
      <nodeBreakerTopology nodeCount="25">
        <busbarSection id=".AVELP7_1" name="1" node="0" v="403.65692138671875" angle="14.022887215129344"/>
        <busbarSection id=".AVELP7_2" name="2" node="1" v="403.07769775390625" angle="15.029998608247723"/>
        <busbarSection id=".AVELP7_3" name="3" node="2" v="403.07769775390625" angle="15.029998608247723"/>
        <switch id=".AVELP7_.AVEL   7RUIEM.1  SA.1" name=".AVEL   7RUIEM.1  SA.1" kind="DISCONNECTOR" retained="false" open="false" node1="0" node2="21"/>
        <switch id=".AVELP7_.AVEL   7AVELI.2  SA.1" name=".AVEL   7AVELI.2  SA.1" kind="DISCONNECTOR" retained="false" open="false" node1="0" node2="3"/>
        <switch id=".AVELP7_.AVEL   7MASTA.1  SA.1" name=".AVEL   7MASTA.1  SA.1" kind="DISCONNECTOR" retained="false" open="true" node1="0" node2="19"/>
        <switch id=".AVELP7_.AVEL   7COUPL.1  SA.1" name=".AVEL   7COUPL.1  SA.1" kind="DISCONNECTOR" retained="false" open="true" node1="0" node2="5"/>
        <switch id=".AVELP7_.AVEL   7RUIEM.2  SA.1" name=".AVEL   7RUIEM.2  SA.1" kind="DISCONNECTOR" retained="false" open="true" node1="0" node2="23"/>
        <switch id=".AVELP7_.AVEL7GROUP.1SA.1" name=".AVEL7GROUP.1SA.1" kind="DISCONNECTOR" retained="false" open="false" node1="0" node2="7"/>
        <switch id=".AVELP7_.AVEL7GROUP.2SA.1" name=".AVEL7GROUP.2SA.1" kind="DISCONNECTOR" retained="false" open="true" node1="0" node2="9"/>
        <switch id=".AVELP7_.AVEL   7.HORT.1  SA.1" name=".AVEL   7.HORT.1  SA.1" kind="DISCONNECTOR" retained="false" open="false" node1="0" node2="11"/>
        <switch id=".AVELP7_.AVEL   7.HORT.2  SA.1" name=".AVEL   7.HORT.2  SA.1" kind="DISCONNECTOR" retained="false" open="true" node1="0" node2="13"/>
        <switch id=".AVELP7_.AVEL   7.IZGE.1  SA.1" name=".AVEL   7.IZGE.1  SA.1" kind="DISCONNECTOR" retained="false" open="true" node1="0" node2="15"/>
        <switch id=".AVELP7_.AVEL   7.IZGE.2  SA.1" name=".AVEL   7.IZGE.2  SA.1" kind="DISCONNECTOR" retained="false" open="false" node1="0" node2="17"/>
        <switch id=".AVELP7_.AVEL   7RUIEM.1  SA.2" name=".AVEL   7RUIEM.1  SA.2" kind="DISCONNECTOR" retained="false" open="true" node1="1" node2="21"/>
        <switch id=".AVELP7_.AVEL   7AVELI.2  SA.2" name=".AVEL   7AVELI.2  SA.2" kind="DISCONNECTOR" retained="false" open="true" node1="1" node2="3"/>
        <switch id=".AVELP7_.AVEL   7MASTA.1  SA.2" name=".AVEL   7MASTA.1  SA.2" kind="DISCONNECTOR" retained="false" open="false" node1="1" node2="19"/>
        <switch id=".AVELP7_.AVEL   7COUPL.1  SA.21" name=".AVEL   7COUPL.1  SA.21" kind="DISCONNECTOR" retained="false" open="false" node1="1" node2="5"/>
        <switch id=".AVELP7_.AVEL   7RUIEM.2  SA.2" name=".AVEL   7RUIEM.2  SA.2" kind="DISCONNECTOR" retained="false" open="false" node1="1" node2="23"/>
        <switch id=".AVELP7_.AVEL7GROUP.1SA.2" name=".AVEL7GROUP.1SA.2" kind="DISCONNECTOR" retained="false" open="true" node1="1" node2="7"/>
        <switch id=".AVELP7_.AVEL7GROUP.2SA.2" name=".AVEL7GROUP.2SA.2" kind="DISCONNECTOR" retained="false" open="false" node1="1" node2="9"/>
        <switch id=".AVELP7_.AVEL   7.HORT.1  SA.2" name=".AVEL   7.HORT.1  SA.2" kind="DISCONNECTOR" retained="false" open="true" node1="1" node2="11"/>
        <switch id=".AVELP7_.AVEL   7.HORT.2  SA.2" name=".AVEL   7.HORT.2  SA.2" kind="DISCONNECTOR" retained="false" open="true" node1="1" node2="13"/>
        <switch id=".AVELP7_.AVEL   7.IZGE.1  SA.2" name=".AVEL   7.IZGE.1  SA.2" kind="DISCONNECTOR" retained="false" open="true" node1="1" node2="15"/>
        <switch id=".AVELP7_.AVEL   7.IZGE.2  SA.2" name=".AVEL   7.IZGE.2  SA.2" kind="DISCONNECTOR" retained="false" open="true" node1="1" node2="17"/>
        <switch id=".AVELP7_.AVEL   7COUPL.1  SA.23" name=".AVEL   7COUPL.1  SA.23" kind="DISCONNECTOR" retained="false" open="true" node1="6" node2="1"/>
        <switch id=".AVELP7_.AVEL   7AVELI.2  SA.3" name=".AVEL   7AVELI.2  SA.3" kind="DISCONNECTOR" retained="false" open="true" node1="2" node2="3"/>
        <switch id=".AVELP7_.AVEL   7RUIEM.1  SA.3" name=".AVEL   7RUIEM.1  SA.3" kind="DISCONNECTOR" retained="false" open="true" node1="2" node2="21"/>
        <switch id=".AVELP7_.AVEL   7MASTA.1  SA.3" name=".AVEL   7MASTA.1  SA.3" kind="DISCONNECTOR" retained="false" open="true" node1="2" node2="19"/>
        <switch id=".AVELP7_.AVEL   7RUIEM.2  SA.3" name=".AVEL   7RUIEM.2  SA.3" kind="DISCONNECTOR" retained="false" open="true" node1="2" node2="23"/>
        <switch id=".AVELP7_.AVEL7GROUP.1SA.3" name=".AVEL7GROUP.1SA.3" kind="DISCONNECTOR" retained="false" open="true" node1="2" node2="7"/>
        <switch id=".AVELP7_.AVEL7GROUP.2SA.3" name=".AVEL7GROUP.2SA.3" kind="DISCONNECTOR" retained="false" open="true" node1="2" node2="9"/>
        <switch id=".AVELP7_.AVEL   7.HORT.1  SA.3" name=".AVEL   7.HORT.1  SA.3" kind="DISCONNECTOR" retained="false" open="true" node1="2" node2="11"/>
        <switch id=".AVELP7_.AVEL   7.HORT.2  SA.3" name=".AVEL   7.HORT.2  SA.3" kind="DISCONNECTOR" retained="false" open="false" node1="2" node2="13"/>
        <switch id=".AVELP7_.AVEL   7.IZGE.1  SA.3" name=".AVEL   7.IZGE.1  SA.3" kind="DISCONNECTOR" retained="false" open="false" node1="2" node2="15"/>
        <switch id=".AVELP7_.AVEL   7.IZGE.2  SA.3" name=".AVEL   7.IZGE.2  SA.3" kind="DISCONNECTOR" retained="false" open="true" node1="2" node2="17"/>
        <switch id=".AVELP7_.AVEL   7COUPL.1  SA.3" name=".AVEL   7COUPL.1  SA.3" kind="DISCONNECTOR" retained="false" open="false" node1="6" node2="2"/>
        <switch id=".AVELP7_.AVEL   7AVELI.2  DJ" name=".AVEL   7AVELI.2  DJ" kind="BREAKER" retained="true" open="false" node1="3" node2="4"/>
        <switch id=".AVELP7_.AVEL   7COUPL.1  DJ" name=".AVEL   7COUPL.1  DJ" kind="BREAKER" retained="true" open="false" node1="5" node2="6"/>
        <switch id=".AVELP7_.AVEL7GROUP.1DJ" name=".AVEL7GROUP.1DJ" kind="BREAKER" retained="true" open="false" node1="7" node2="8"/>
        <switch id=".AVELP7_.AVEL7GROUP.2DJ" name=".AVEL7GROUP.2DJ" kind="BREAKER" retained="true" open="false" node1="9" node2="10"/>
        <switch id=".AVELP7_.AVEL   7.HORT.1  DJ" name=".AVEL   7.HORT.1  DJ" kind="BREAKER" retained="true" open="false" node1="11" node2="12"/>
        <switch id=".AVELP7_.AVEL   7.HORT.2  DJ" name=".AVEL   7.HORT.2  DJ" kind="BREAKER" retained="true" open="false" node1="13" node2="14"/>
        <switch id=".AVELP7_.AVEL   7.IZGE.1  DJ" name=".AVEL   7.IZGE.1  DJ" kind="BREAKER" retained="true" open="false" node1="15" node2="16"/>
        <switch id=".AVELP7_.AVEL   7.IZGE.2  DJ" name=".AVEL   7.IZGE.2  DJ" kind="BREAKER" retained="true" open="false" node1="17" node2="18"/>
        <switch id=".AVELP7_.AVEL   7MASTA.1  DJ" name=".AVEL   7MASTA.1  DJ" kind="BREAKER" retained="true" open="false" node1="19" node2="20"/>
        <switch id=".AVELP7_.AVEL   7RUIEM.1  DJ" name=".AVEL   7RUIEM.1  DJ" kind="BREAKER" retained="true" open="false" node1="21" node2="22"/>
        <switch id=".AVELP7_.AVEL   7RUIEM.2  DJ" name=".AVEL   7RUIEM.2  DJ" kind="BREAKER" retained="true" open="false" node1="23" node2="24"/>
      </nodeBreakerTopology>
      <generator id=".AVEL.TG1" energySource="OTHER" minP="-200" maxP="200" voltageRegulatorOn="true" targetP="2.9549641609191895" targetQ="-5.9059996604919434" targetV="403.65695190429688" node="8" p="-2.9549641609191895" q="5.9063262939453125">
        <property name="genreCvg" value="FICTIF"/>
        <reactiveCapabilityCurve>
          <point p="-200" minQ="-200" maxQ="200"/>
          <point p="200" minQ="-200" maxQ="200"/>
        </reactiveCapabilityCurve>
      </generator>
      <generator id=".AVEL.TG2" energySource="OTHER" minP="-200" maxP="200" voltageRegulatorOn="true" targetP="-200" targetQ="-92.942855834960938" targetV="403.07769775390625" node="10" p="200" q="92.942955017089844">
        <property name="genreCvg" value="FICTIF"/>
        <reactiveCapabilityCurve>
          <point p="-200" minQ="-200" maxQ="200"/>
          <point p="200" minQ="-200" maxQ="200"/>
        </reactiveCapabilityCurve>
      </generator>
      <load id=".AVEL7.IZGE.1" loadType="UNDEFINED" p0="263.53448486328125" q0="25" node="16" p="263.53448486328125" q="25"/>
      <load id=".AVEL7.IZGE.2" loadType="UNDEFINED" p0="156" q0="27" node="18" p="156" q="27"/>
      <load id=".AVEL7RUIEM" loadType="UNDEFINED" p0="0" q0="0" node="22" p="0" q="0"/>
      <load id=".AVEL7RUIEM.2" loadType="UNDEFINED" p0="-93.203323364257812" q0="-36" node="24" p="-93.203323364257812" q="-36"/>
    </voltageLevel>
  </substation>
  <substation id=".BRUE" country="BE">
    <property name="paysCvg" value="BELGIQUE"/>
    <property name="regionCvg" value="BELGIQUE"/>
    <voltageLevel id=".BRUEP7" nominalV="380" lowVoltageLimit="390" highVoltageLimit="420.00003051757812" topologyKind="NODE_BREAKER">
      <nodeBreakerTopology nodeCount="16">
        <busbarSection id=".BRUEP7_1" name="1" node="0" v="404.09893798828125" angle="18.945740936774158"/>
        <busbarSection id=".BRUEP7_2" name="2" node="1" v="404.09893798828125" angle="18.945740936774158"/>
        <switch id=".BRUEP7_.BRUE   7TR751    SA.1" name=".BRUE   7TR751    SA.1" kind="DISCONNECTOR" retained="false" open="false" node1="0" node2="6"/>
        <switch id=".BRUEP7_.BRUE   7ZDROG.1  SA.1" name=".BRUE   7ZDROG.1  SA.1" kind="DISCONNECTOR" retained="false" open="false" node1="0" node2="10"/>
        <switch id=".BRUEP7_.BRUE   7TR752    SA.1" name=".BRUE   7TR752    SA.1" kind="DISCONNECTOR" retained="false" open="true" node1="0" node2="8"/>
        <switch id=".BRUEP7_.BRUE   7Z.VER.2  SA.1" name=".BRUE   7Z.VER.2  SA.1" kind="DISCONNECTOR" retained="false" open="true" node1="0" node2="14"/>
        <switch id=".BRUEP7_.BRUE   7Z.VER.1  SA.1" name=".BRUE   7Z.VER.1  SA.1" kind="DISCONNECTOR" retained="false" open="false" node1="0" node2="12"/>
        <switch id=".BRUEP7_.BRUE   7.CZCE.1  SA.1" name=".BRUE   7.CZCE.1  SA.1" kind="DISCONNECTOR" retained="false" open="true" node1="0" node2="4"/>
        <switch id=".BRUEP7_.BRUE   7COUPL.1  SA.1" name=".BRUE   7COUPL.1  SA.1" kind="DISCONNECTOR" retained="false" open="false" node1="3" node2="0"/>
        <switch id=".BRUEP7_.BRUE   7TR751    SA.2" name=".BRUE   7TR751    SA.2" kind="DISCONNECTOR" retained="false" open="true" node1="1" node2="6"/>
        <switch id=".BRUEP7_.BRUE   7ZDROG.1  SA.2" name=".BRUE   7ZDROG.1  SA.2" kind="DISCONNECTOR" retained="false" open="true" node1="1" node2="10"/>
        <switch id=".BRUEP7_.BRUE   7TR752    SA.2" name=".BRUE   7TR752    SA.2" kind="DISCONNECTOR" retained="false" open="false" node1="1" node2="8"/>
        <switch id=".BRUEP7_.BRUE   7COUPL.1  SA.2" name=".BRUE   7COUPL.1  SA.2" kind="DISCONNECTOR" retained="false" open="false" node1="1" node2="2"/>
        <switch id=".BRUEP7_.BRUE   7Z.VER.2  SA.2" name=".BRUE   7Z.VER.2  SA.2" kind="DISCONNECTOR" retained="false" open="false" node1="1" node2="14"/>
        <switch id=".BRUEP7_.BRUE   7Z.VER.1  SA.2" name=".BRUE   7Z.VER.1  SA.2" kind="DISCONNECTOR" retained="false" open="true" node1="1" node2="12"/>
        <switch id=".BRUEP7_.BRUE   7.CZCE.1  SA.2" name=".BRUE   7.CZCE.1  SA.2" kind="DISCONNECTOR" retained="false" open="false" node1="1" node2="4"/>
        <switch id=".BRUEP7_.BRUE   7COUPL.1  DJ" name=".BRUE   7COUPL.1  DJ" kind="BREAKER" retained="true" open="false" node1="2" node2="3"/>
        <switch id=".BRUEP7_.BRUE   7.CZCE.1  DJ" name=".BRUE   7.CZCE.1  DJ" kind="BREAKER" retained="true" open="false" node1="4" node2="5"/>
        <switch id=".BRUEP7_.BRUE   7TR751    DJ" name=".BRUE   7TR751    DJ" kind="BREAKER" retained="true" open="false" node1="6" node2="7"/>
        <switch id=".BRUEP7_.BRUE   7TR752    DJ" name=".BRUE   7TR752    DJ" kind="BREAKER" retained="true" open="false" node1="8" node2="9"/>
        <switch id=".BRUEP7_.BRUE   7ZDROG.1  DJ" name=".BRUE   7ZDROG.1  DJ" kind="BREAKER" retained="true" open="false" node1="10" node2="11"/>
        <switch id=".BRUEP7_.BRUE   7Z.VER.1  DJ" name=".BRUE   7Z.VER.1  DJ" kind="BREAKER" retained="true" open="false" node1="12" node2="13"/>
        <switch id=".BRUEP7_.BRUE   7Z.VER.2  DJ" name=".BRUE   7Z.VER.2  DJ" kind="BREAKER" retained="true" open="false" node1="14" node2="15"/>
      </nodeBreakerTopology>
      <load id=".BRUE7Y751" loadType="UNDEFINED" p0="239.34471130371094" q0="-16.483787536621094" node="7" p="239.34471130371094" q="-16.483787536621094"/>
      <load id=".BRUE7Y752" loadType="UNDEFINED" p0="229.33027648925781" q0="-10.683937072753906" node="9" p="229.33027648925781" q="-10.683937072753906"/>
    </voltageLevel>
  </substation>
  <substation id=".BRUM" country="BE">
    <property name="paysCvg" value="BELGIQUE"/>
    <property name="regionCvg" value="BELGIQUE"/>
    <voltageLevel id=".BRUMP7" nominalV="380" lowVoltageLimit="390" highVoltageLimit="420.00003051757812" topologyKind="NODE_BREAKER">
      <nodeBreakerTopology nodeCount="16">
        <busbarSection id=".BRUMP7_1" name="1" node="0" v="410.35446166992188" angle="24.021444046760099"/>
        <busbarSection id=".BRUMP7_2" name="2" node="1" v="410.35446166992188" angle="24.021444046760099"/>
        <switch id=".BRUMP7_.BRUM   7.GRAM.1  SA.1" name=".BRUM   7.GRAM.1  SA.1" kind="DISCONNECTOR" retained="false" open="true" node1="0" node2="12"/>
        <switch id=".BRUMP7_.BRUM   7.GRAM.2  SA.1" name=".BRUM   7.GRAM.2  SA.1" kind="DISCONNECTOR" retained="false" open="false" node1="0" node2="14"/>
        <switch id=".BRUMP7_.BRUM   7.AUBA.1  SA.1" name=".BRUM   7.AUBA.1  SA.1" kind="DISCONNECTOR" retained="false" open="true" node1="0" node2="4"/>
        <switch id=".BRUMP7_.BRUM   7.COO.1   SA.1" name=".BRUM   7.COO.1   SA.1" kind="DISCONNECTOR" retained="false" open="false" node1="0" node2="6"/>
        <switch id=".BRUMP7_.BRUM   7.COO.2   SA.1" name=".BRUM   7.COO.2   SA.1" kind="DISCONNECTOR" retained="false" open="true" node1="0" node2="8"/>
        <switch id=".BRUMP7_.BRUM   7AT761    SA.1" name=".BRUM   7AT761    SA.1" kind="DISCONNECTOR" retained="false" open="false" node1="0" node2="2"/>
        <switch id=".BRUMP7_.BRUM   7COUPL    SA.1" name=".BRUM   7COUPL    SA.1" kind="DISCONNECTOR" retained="false" open="false" node1="11" node2="0"/>
        <switch id=".BRUMP7_.BRUM   7.AUBA.1  SA.2" name=".BRUM   7.AUBA.1  SA.2" kind="DISCONNECTOR" retained="false" open="false" node1="1" node2="4"/>
        <switch id=".BRUMP7_.BRUM   7.GRAM.1  SA.2" name=".BRUM   7.GRAM.1  SA.2" kind="DISCONNECTOR" retained="false" open="false" node1="1" node2="12"/>
        <switch id=".BRUMP7_.BRUM   7.GRAM.2  SA.2" name=".BRUM   7.GRAM.2  SA.2" kind="DISCONNECTOR" retained="false" open="true" node1="1" node2="14"/>
        <switch id=".BRUMP7_.BRUM   7COUPL    SA.2" name=".BRUM   7COUPL    SA.2" kind="DISCONNECTOR" retained="false" open="false" node1="1" node2="10"/>
        <switch id=".BRUMP7_.BRUM   7.COO.1   SA.2" name=".BRUM   7.COO.1   SA.2" kind="DISCONNECTOR" retained="false" open="true" node1="1" node2="6"/>
        <switch id=".BRUMP7_.BRUM   7.COO.2   SA.2" name=".BRUM   7.COO.2   SA.2" kind="DISCONNECTOR" retained="false" open="false" node1="1" node2="8"/>
        <switch id=".BRUMP7_.BRUM   7AT761    SA.2" name=".BRUM   7AT761    SA.2" kind="DISCONNECTOR" retained="false" open="true" node1="1" node2="2"/>
        <switch id=".BRUMP7_.BRUM   7AT761    DJ" name=".BRUM   7AT761    DJ" kind="BREAKER" retained="true" open="false" node1="2" node2="3"/>
        <switch id=".BRUMP7_.BRUM   7.AUBA.1  DJ" name=".BRUM   7.AUBA.1  DJ" kind="BREAKER" retained="true" open="false" node1="4" node2="5"/>
        <switch id=".BRUMP7_.BRUM   7.COO.1   DJ" name=".BRUM   7.COO.1   DJ" kind="BREAKER" retained="true" open="false" node1="6" node2="7"/>
        <switch id=".BRUMP7_.BRUM   7.COO.2   DJ" name=".BRUM   7.COO.2   DJ" kind="BREAKER" retained="true" open="false" node1="8" node2="9"/>
        <switch id=".BRUMP7_.BRUM   7COUPL    DJ" name=".BRUM   7COUPL    DJ" kind="BREAKER" retained="true" open="false" node1="10" node2="11"/>
        <switch id=".BRUMP7_.BRUM   7.GRAM.1  DJ" name=".BRUM   7.GRAM.1  DJ" kind="BREAKER" retained="true" open="false" node1="12" node2="13"/>
        <switch id=".BRUMP7_.BRUM   7.GRAM.2  DJ" name=".BRUM   7.GRAM.2  DJ" kind="BREAKER" retained="true" open="false" node1="14" node2="15"/>
      </nodeBreakerTopology>
      <load id=".BRUM7AT761" loadType="UNDEFINED" p0="112.88512420654297" q0="-61.338375091552734" node="3" p="112.88512420654297" q="-61.338375091552734"/>
    </voltageLevel>
  </substation>
  <substation id=".COO" country="BE">
    <property name="paysCvg" value="BELGIQUE"/>
    <property name="regionCvg" value="BELGIQUE"/>
    <voltageLevel id=".COO P7" nominalV="380" lowVoltageLimit="390" highVoltageLimit="420.00003051757812" topologyKind="NODE_BREAKER">
      <nodeBreakerTopology nodeCount="14">
        <busbarSection id=".COO P7_1.1" name="1.1" node="0" v="410.351318359375" angle="24.019948235331867"/>
        <busbarSection id=".COO P7_1.2" name="1.2" node="1" v="410.35336303710938" angle="24.020591980661141"/>
        <switch id=".COO P7_.COO 7.BRUM.1SA.1F" name=".COO 7.BRUM.1SA.1F" kind="DISCONNECTOR" retained="false" open="false" fictitious="true" node1="0" node2="2"/>
        <switch id=".COO P7_.COO 7SE.1.12SS.1.12F" name=".COO 7SE.1.12SS.1.12F" kind="DISCONNECTOR" retained="false" open="true" fictitious="true" node1="0" node2="1"/>
        <switch id=".COO P7_.COO 7.COOC.1SA.1F" name=".COO 7.COOC.1SA.1F" kind="DISCONNECTOR" retained="false" open="false" fictitious="true" node1="0" node2="10"/>
        <switch id=".COO P7_.COO 7BRUTT.TG1SA.1F" name=".COO 7BRUTT.TG1SA.1F" kind="DISCONNECTOR" retained="false" open="false" fictitious="true" node1="0" node2="7"/>
        <switch id=".COO P7_.COO 7.BRUM.2SA.1F" name=".COO 7.BRUM.2SA.1F" kind="DISCONNECTOR" retained="false" open="false" fictitious="true" node1="1" node2="4"/>
        <switch id=".COO P7_.COO 7.COOC.2SA.1F" name=".COO 7.COOC.2SA.1F" kind="DISCONNECTOR" retained="false" open="false" fictitious="true" node1="1" node2="12"/>
        <switch id=".COO P7_.COO 7BRUTT.TG2SA.1F" name=".COO 7BRUTT.TG2SA.1F" kind="DISCONNECTOR" retained="false" open="false" fictitious="true" node1="1" node2="9"/>
        <switch id=".COO P7_.COO 7.BRUM.1DJ" name=".COO 7.BRUM.1DJ" kind="BREAKER" retained="true" open="false" node1="2" node2="3"/>
        <switch id=".COO P7_.COO 7.BRUM.2DJ" name=".COO 7.BRUM.2DJ" kind="BREAKER" retained="true" open="false" node1="4" node2="5"/>
        <switch id=".COO P7_.COO 7BRUTT.TG1COUPLEUR" name=".COO 7BRUTT.TG1COUPLEUR" kind="BREAKER" retained="true" open="false" node1="7" node2="6"/>
        <switch id=".COO P7_.COO 7BRUTT.TG2COUPLEUR" name=".COO 7BRUTT.TG2COUPLEUR" kind="BREAKER" retained="true" open="false" node1="9" node2="8"/>
        <switch id=".COO P7_.COO 7.COOC.1DJ" name=".COO 7.COOC.1DJ" kind="BREAKER" retained="true" open="false" node1="10" node2="11"/>
        <switch id=".COO P7_.COO 7.COOC.2DJ" name=".COO 7.COOC.2DJ" kind="BREAKER" retained="true" open="false" node1="12" node2="13"/>
      </nodeBreakerTopology>
      <generator id=".BRUM7ANNEAU1" energySource="OTHER" minP="-500" maxP="500" voltageRegulatorOn="true" targetP="-6.8851079940795898" targetQ="-2.0085513591766357" targetV="410.351318359375" node="6" p="6.8851079940795898" q="2.0085709095001221">
        <property name="genreCvg" value="FICTIF"/>
        <reactiveCapabilityCurve>
          <point p="-500" minQ="-280" maxQ="280"/>
          <point p="0" minQ="-350" maxQ="300"/>
          <point p="500" minQ="-280" maxQ="280"/>
        </reactiveCapabilityCurve>
      </generator>
      <generator id=".BRUM7ANNEAU2" energySource="OTHER" minP="-600" maxP="600" voltageRegulatorOn="true" targetP="-3.8851203918457031" targetQ="-1.008689284324646" targetV="410.35336303710938" node="8" p="3.8851203918457031" q="1.0087085962295532">
        <property name="genreCvg" value="FICTIF"/>
        <reactiveCapabilityCurve>
          <point p="-600" minQ="-280" maxQ="280"/>
          <point p="0" minQ="-350" maxQ="300"/>
          <point p="600" minQ="-280" maxQ="280"/>
        </reactiveCapabilityCurve>
      </generator>
      <load id=".COO 7COOC1" loadType="UNDEFINED" p0="0" q0="0" node="11" p="0" q="0"/>
      <load id=".COO 7COOC2" loadType="UNDEFINED" p0="0" q0="0" node="13" p="0" q="0"/>
    </voltageLevel>
  </substation>
  <substation id=".CPIO" country="BE">
    <property name="paysCvg" value="BELGIQUE"/>
    <property name="regionCvg" value="BELGIQUE"/>
    <voltageLevel id=".CPIOP7" nominalV="380" lowVoltageLimit="390" highVoltageLimit="420.00003051757812" topologyKind="NODE_BREAKER">
      <nodeBreakerTopology nodeCount="12">
        <busbarSection id=".CPIOP7_1" name="1" node="0" v="406.21829223632812" angle="22.26364192989125"/>
        <busbarSection id=".CPIOP7_2" name="2" node="1" v="406.21829223632812" angle="22.26364192989125"/>
        <switch id=".CPIOP7_.CPIO   7TR751    SA.1" name=".CPIO   7TR751    SA.1" kind="DISCONNECTOR" retained="false" open="false" node1="0" node2="8"/>
        <switch id=".CPIOP7_.CPIO   7TR752    SA.1" name=".CPIO   7TR752    SA.1" kind="DISCONNECTOR" retained="false" open="true" node1="0" node2="10"/>
        <switch id=".CPIOP7_.CPIO   7.GRAM.1  SA.1" name=".CPIO   7.GRAM.1  SA.1" kind="DISCONNECTOR" retained="false" open="false" node1="0" node2="6"/>
        <switch id=".CPIOP7_.CPIO   7.CZCE.1  SA.1" name=".CPIO   7.CZCE.1  SA.1" kind="DISCONNECTOR" retained="false" open="true" node1="0" node2="4"/>
        <switch id=".CPIOP7_.CPIO   7COUPL    SA.1" name=".CPIO   7COUPL    SA.1" kind="DISCONNECTOR" retained="false" open="false" node1="3" node2="0"/>
        <switch id=".CPIOP7_.CPIO   7COUPL    SA.2" name=".CPIO   7COUPL    SA.2" kind="DISCONNECTOR" retained="false" open="false" node1="1" node2="2"/>
        <switch id=".CPIOP7_.CPIO   7TR751    SA.2" name=".CPIO   7TR751    SA.2" kind="DISCONNECTOR" retained="false" open="true" node1="1" node2="8"/>
        <switch id=".CPIOP7_.CPIO   7TR752    SA.2" name=".CPIO   7TR752    SA.2" kind="DISCONNECTOR" retained="false" open="false" node1="1" node2="10"/>
        <switch id=".CPIOP7_.CPIO   7.GRAM.1  SA.2" name=".CPIO   7.GRAM.1  SA.2" kind="DISCONNECTOR" retained="false" open="true" node1="1" node2="6"/>
        <switch id=".CPIOP7_.CPIO   7.CZCE.1  SA.2" name=".CPIO   7.CZCE.1  SA.2" kind="DISCONNECTOR" retained="false" open="false" node1="1" node2="4"/>
        <switch id=".CPIOP7_.CPIO   7COUPL    DJ" name=".CPIO   7COUPL    DJ" kind="BREAKER" retained="true" open="false" node1="2" node2="3"/>
        <switch id=".CPIOP7_.CPIO   7.CZCE.1  DJ" name=".CPIO   7.CZCE.1  DJ" kind="BREAKER" retained="true" open="false" node1="4" node2="5"/>
        <switch id=".CPIOP7_.CPIO   7.GRAM.1  DJ" name=".CPIO   7.GRAM.1  DJ" kind="BREAKER" retained="true" open="false" node1="6" node2="7"/>
        <switch id=".CPIOP7_.CPIO   7TR751    DJ" name=".CPIO   7TR751    DJ" kind="BREAKER" retained="true" open="false" node1="8" node2="9"/>
        <switch id=".CPIOP7_.CPIO   7TR752    DJ" name=".CPIO   7TR752    DJ" kind="BREAKER" retained="true" open="false" node1="10" node2="11"/>
      </nodeBreakerTopology>
      <load id=".CPIO7TR751" loadType="UNDEFINED" p0="79.805824279785156" q0="3.3702781200408936" node="9" p="79.805824279785156" q="3.3702781200408936"/>
      <load id=".CPIO7TR752" loadType="UNDEFINED" p0="71.514305114746094" q0="8.2216682434082031" node="11" p="71.514305114746094" q="8.2216682434082031"/>
    </voltageLevel>
  </substation>
  <substation id=".CZCE" country="BE">
    <property name="paysCvg" value="BELGIQUE"/>
    <property name="regionCvg" value="BELGIQUE"/>
    <voltageLevel id=".CZCEP7" nominalV="380" lowVoltageLimit="390" highVoltageLimit="420.00003051757812" topologyKind="NODE_BREAKER">
      <nodeBreakerTopology nodeCount="16">
        <busbarSection id=".CZCEP7_1" name="1" node="0" v="404.372314453125" angle="19.613815399871445"/>
        <busbarSection id=".CZCEP7_2" name="2" node="1" v="404.372314453125" angle="19.613815399871445"/>
        <switch id=".CZCEP7_.CZCE   7ZTERG.1  SA.1" name=".CZCE   7ZTERG.1  SA.1" kind="DISCONNECTOR" retained="false" open="true" node1="0" node2="14"/>
        <switch id=".CZCEP7_.CZCE   7ZDROG.1  SA.1" name=".CZCE   7ZDROG.1  SA.1" kind="DISCONNECTOR" retained="false" open="false" node1="0" node2="12"/>
        <switch id=".CZCEP7_.CZCE   7.BRUE.1  SA.1" name=".CZCE   7.BRUE.1  SA.1" kind="DISCONNECTOR" retained="false" open="true" node1="0" node2="2"/>
        <switch id=".CZCEP7_.CZCE   7.CPIO.1  SA.1" name=".CZCE   7.CPIO.1  SA.1" kind="DISCONNECTOR" retained="false" open="false" node1="0" node2="6"/>
        <switch id=".CZCEP7_.CZCE   7.GOUY.3  SA.1" name=".CZCE   7.GOUY.3  SA.1" kind="DISCONNECTOR" retained="false" open="false" node1="0" node2="8"/>
        <switch id=".CZCEP7_.CZCE   7.GOUY.4  SA.1" name=".CZCE   7.GOUY.4  SA.1" kind="DISCONNECTOR" retained="false" open="true" node1="0" node2="10"/>
        <switch id=".CZCEP7_.CZCE   7COUPL.1  SA.1" name=".CZCE   7COUPL.1  SA.1" kind="DISCONNECTOR" retained="false" open="false" node1="5" node2="0"/>
        <switch id=".CZCEP7_.CZCE   7ZTERG.1  SA.2" name=".CZCE   7ZTERG.1  SA.2" kind="DISCONNECTOR" retained="false" open="false" node1="1" node2="14"/>
        <switch id=".CZCEP7_.CZCE   7ZDROG.1  SA.2" name=".CZCE   7ZDROG.1  SA.2" kind="DISCONNECTOR" retained="false" open="true" node1="1" node2="12"/>
        <switch id=".CZCEP7_.CZCE   7.BRUE.1  SA.2" name=".CZCE   7.BRUE.1  SA.2" kind="DISCONNECTOR" retained="false" open="false" node1="1" node2="2"/>
        <switch id=".CZCEP7_.CZCE   7COUPL.1  SA.2" name=".CZCE   7COUPL.1  SA.2" kind="DISCONNECTOR" retained="false" open="false" node1="1" node2="4"/>
        <switch id=".CZCEP7_.CZCE   7.CPIO.1  SA.2" name=".CZCE   7.CPIO.1  SA.2" kind="DISCONNECTOR" retained="false" open="true" node1="1" node2="6"/>
        <switch id=".CZCEP7_.CZCE   7.GOUY.3  SA.2" name=".CZCE   7.GOUY.3  SA.2" kind="DISCONNECTOR" retained="false" open="true" node1="1" node2="8"/>
        <switch id=".CZCEP7_.CZCE   7.GOUY.4  SA.2" name=".CZCE   7.GOUY.4  SA.2" kind="DISCONNECTOR" retained="false" open="false" node1="1" node2="10"/>
        <switch id=".CZCEP7_.CZCE   7.BRUE.1  DJ" name=".CZCE   7.BRUE.1  DJ" kind="BREAKER" retained="true" open="false" node1="2" node2="3"/>
        <switch id=".CZCEP7_.CZCE   7COUPL.1  DJ" name=".CZCE   7COUPL.1  DJ" kind="BREAKER" retained="true" open="false" node1="4" node2="5"/>
        <switch id=".CZCEP7_.CZCE   7.CPIO.1  DJ" name=".CZCE   7.CPIO.1  DJ" kind="BREAKER" retained="true" open="false" node1="6" node2="7"/>
        <switch id=".CZCEP7_.CZCE   7.GOUY.3  DJ" name=".CZCE   7.GOUY.3  DJ" kind="BREAKER" retained="true" open="false" node1="8" node2="9"/>
        <switch id=".CZCEP7_.CZCE   7.GOUY.4  DJ" name=".CZCE   7.GOUY.4  DJ" kind="BREAKER" retained="true" open="false" node1="10" node2="11"/>
        <switch id=".CZCEP7_.CZCE   7ZDROG.1  DJ" name=".CZCE   7ZDROG.1  DJ" kind="BREAKER" retained="true" open="false" node1="12" node2="13"/>
        <switch id=".CZCEP7_.CZCE   7ZTERG.1  DJ" name=".CZCE   7ZTERG.1  DJ" kind="BREAKER" retained="true" open="false" node1="14" node2="15"/>
      </nodeBreakerTopology>
    </voltageLevel>
  </substation>
  <substation id=".DAHL" country="DE">
    <property name="paysCvg" value="ALLEMAGNE"/>
    <property name="regionCvg" value="ALLEMAGNE"/>
    <voltageLevel id=".DAHLP7" nominalV="380" lowVoltageLimit="390" highVoltageLimit="420.00003051757812" topologyKind="NODE_BREAKER">
      <nodeBreakerTopology nodeCount="14">
        <busbarSection id=".DAHLP7_1" name="1" node="0" v="408.41561889648438" angle="36.86502055451129"/>
        <busbarSection id=".DAHLP7_2" name="2" node="1" v="408.415283203125" angle="36.869145988769972"/>
        <switch id=".DAHLP7_.DAHL7.NIED.1SA.1" name=".DAHL7.NIED.1SA.1" kind="DISCONNECTOR" retained="false" open="false" node1="0" node2="2"/>
        <switch id=".DAHLP7_.DAHL7.NIED.2SA.1" name=".DAHL7.NIED.2SA.1" kind="DISCONNECTOR" retained="false" open="true" node1="0" node2="4"/>
        <switch id=".DAHLP7_.DAHL7.OBER.1SA.1" name=".DAHL7.OBER.1SA.1" kind="DISCONNECTOR" retained="false" open="false" node1="0" node2="6"/>
        <switch id=".DAHLP7_.DAHL7.OBER.2SA.1" name=".DAHL7.OBER.2SA.1" kind="DISCONNECTOR" retained="false" open="true" node1="0" node2="8"/>
        <switch id=".DAHLP7_.DAHL7TR731SA.1" name=".DAHL7TR731SA.1" kind="DISCONNECTOR" retained="false" open="false" node1="0" node2="10"/>
        <switch id=".DAHLP7_.DAHL7TR732SA.1" name=".DAHL7TR732SA.1" kind="DISCONNECTOR" retained="false" open="true" node1="0" node2="12"/>
        <switch id=".DAHLP7_.DAHL7.NIED.1SA.2" name=".DAHL7.NIED.1SA.2" kind="DISCONNECTOR" retained="false" open="true" node1="1" node2="2"/>
        <switch id=".DAHLP7_.DAHL7.NIED.2SA.2" name=".DAHL7.NIED.2SA.2" kind="DISCONNECTOR" retained="false" open="false" node1="1" node2="4"/>
        <switch id=".DAHLP7_.DAHL7.OBER.1SA.2" name=".DAHL7.OBER.1SA.2" kind="DISCONNECTOR" retained="false" open="true" node1="1" node2="6"/>
        <switch id=".DAHLP7_.DAHL7.OBER.2SA.2" name=".DAHL7.OBER.2SA.2" kind="DISCONNECTOR" retained="false" open="false" node1="1" node2="8"/>
        <switch id=".DAHLP7_.DAHL7TR731SA.2" name=".DAHL7TR731SA.2" kind="DISCONNECTOR" retained="false" open="true" node1="1" node2="10"/>
        <switch id=".DAHLP7_.DAHL7TR732SA.2" name=".DAHL7TR732SA.2" kind="DISCONNECTOR" retained="false" open="false" node1="1" node2="12"/>
        <switch id=".DAHLP7_.DAHL7.NIED.1DJ" name=".DAHL7.NIED.1DJ" kind="BREAKER" retained="true" open="false" node1="2" node2="3"/>
        <switch id=".DAHLP7_.DAHL7.NIED.2DJ" name=".DAHL7.NIED.2DJ" kind="BREAKER" retained="true" open="false" node1="4" node2="5"/>
        <switch id=".DAHLP7_.DAHL7.OBER.1DJ" name=".DAHL7.OBER.1DJ" kind="BREAKER" retained="true" open="false" node1="6" node2="7"/>
        <switch id=".DAHLP7_.DAHL7.OBER.2DJ" name=".DAHL7.OBER.2DJ" kind="BREAKER" retained="true" open="false" node1="8" node2="9"/>
        <switch id=".DAHLP7_.DAHL   7TR731    DJ" name=".DAHL   7TR731    DJ" kind="BREAKER" retained="true" open="false" node1="10" node2="11"/>
        <switch id=".DAHLP7_.DAHL   7TR732    DJ" name=".DAHL   7TR732    DJ" kind="BREAKER" retained="true" open="false" node1="12" node2="13"/>
      </nodeBreakerTopology>
      <load id=".DAHL7TR731" loadType="UNDEFINED" p0="-28.870344161987305" q0="3.0647141933441162" node="11" p="-28.870344161987305" q="3.0647141933441162"/>
      <load id=".DAHL7TR732" loadType="UNDEFINED" p0="-30.451700210571289" q0="3.1012492179870605" node="13" p="-30.451700210571289" q="3.1012492179870605"/>
    </voltageLevel>
  </substation>
  <substation id=".DOEL" country="BE">
    <property name="paysCvg" value="BELGIQUE"/>
    <property name="regionCvg" value="BELGIQUE"/>
    <voltageLevel id=".DOELP7" nominalV="380" lowVoltageLimit="390" highVoltageLimit="420.00003051757812" topologyKind="NODE_BREAKER">
      <nodeBreakerTopology nodeCount="36">
        <busbarSection id=".DOELP7_1B" name="1B" node="0" v="404.45782470703125" angle="22.236816361926024"/>
        <busbarSection id=".DOELP7_1A" name="1A" node="1" v="404.45782470703125" angle="22.236816361926024"/>
        <busbarSection id=".DOELP7_2B" name="2B" node="2" v="404.45782470703125" angle="22.236816361926024"/>
        <busbarSection id=".DOELP7_2A" name="2A" node="3" v="404.45782470703125" angle="22.236816361926024"/>
        <switch id=".DOELP7_.DOEL   7GROUPT4  SA.1" name=".DOEL   7GROUPT4  SA.1" kind="DISCONNECTOR" retained="false" open="true" node1="0" node2="15"/>
        <switch id=".DOELP7_.DOEL   7GROUPT3  SA.1" name=".DOEL   7GROUPT3  SA.1" kind="DISCONNECTOR" retained="false" open="false" node1="0" node2="12"/>
        <switch id=".DOELP7_.DOEL   7.MERC.3  SA.1" name=".DOEL   7.MERC.3  SA.1" kind="DISCONNECTOR" retained="false" open="true" node1="0" node2="22"/>
        <switch id=".DOELP7_.DOEL   7TRO.1BA  SA.1B" name=".DOEL   7TRO.1BA  SA.1B" kind="DISCONNECTOR" retained="false" open="false" node1="0" node2="27"/>
        <switch id=".DOELP7_.DOEL   7.ZAND.1  SA.1" name=".DOEL   7.ZAND.1  SA.1" kind="DISCONNECTOR" retained="false" open="true" node1="0" node2="32"/>
        <switch id=".DOELP7_.DOEL   7TR755    SA.1" name=".DOEL   7TR755    SA.1" kind="DISCONNECTOR" retained="false" open="true" node1="0" node2="30"/>
        <switch id=".DOELP7_.DOEL   7.MERC.4  SA.1" name=".DOEL   7.MERC.4  SA.1" kind="DISCONNECTOR" retained="false" open="false" node1="0" node2="24"/>
        <switch id=".DOELP7_.DOEL   7COUPL.B  SA.1" name=".DOEL   7COUPL.B  SA.1" kind="DISCONNECTOR" retained="false" open="false" node1="7" node2="0"/>
        <switch id=".DOELP7_.DOEL   7.MERC.1  SA.1" name=".DOEL   7.MERC.1  SA.1" kind="DISCONNECTOR" retained="false" open="false" node1="1" node2="18"/>
        <switch id=".DOELP7_.DOEL   7GROUPT2  SA.1" name=".DOEL   7GROUPT2  SA.1" kind="DISCONNECTOR" retained="false" open="true" node1="1" node2="10"/>
        <switch id=".DOELP7_.DOEL   7.MERC.2  SA.1" name=".DOEL   7.MERC.2  SA.1" kind="DISCONNECTOR" retained="false" open="true" node1="1" node2="20"/>
        <switch id=".DOELP7_.DOEL   7GROUPT1  SA.1" name=".DOEL   7GROUPT1  SA.1" kind="DISCONNECTOR" retained="false" open="false" node1="1" node2="8"/>
        <switch id=".DOELP7_.DOEL   7.ZAND.2  SA.1" name=".DOEL   7.ZAND.2  SA.1" kind="DISCONNECTOR" retained="false" open="false" node1="1" node2="34"/>
        <switch id=".DOELP7_.DOEL   7TRO.1BA  SA.1A" name=".DOEL   7TRO.1BA  SA.1A" kind="DISCONNECTOR" retained="false" open="false" node1="26" node2="1"/>
        <switch id=".DOELP7_.DOEL   7COUPL.A  SA.1" name=".DOEL   7COUPL.A  SA.1" kind="DISCONNECTOR" retained="false" open="false" node1="5" node2="1"/>
        <switch id=".DOELP7_.DOEL   7COUPL.B  SA.2" name=".DOEL   7COUPL.B  SA.2" kind="DISCONNECTOR" retained="false" open="false" node1="2" node2="6"/>
        <switch id=".DOELP7_.DOEL   7GROUPT4  SA.2" name=".DOEL   7GROUPT4  SA.2" kind="DISCONNECTOR" retained="false" open="false" node1="2" node2="15"/>
        <switch id=".DOELP7_.DOEL   7GROUPT3  SA.2" name=".DOEL   7GROUPT3  SA.2" kind="DISCONNECTOR" retained="false" open="true" node1="2" node2="12"/>
        <switch id=".DOELP7_.DOEL   7.MERC.3  SA.2" name=".DOEL   7.MERC.3  SA.2" kind="DISCONNECTOR" retained="false" open="false" node1="2" node2="22"/>
        <switch id=".DOELP7_.DOEL   7TRO.2BA  SA.2B" name=".DOEL   7TRO.2BA  SA.2B" kind="DISCONNECTOR" retained="false" open="false" node1="2" node2="29"/>
        <switch id=".DOELP7_.DOEL   7.ZAND.1  SA.2" name=".DOEL   7.ZAND.1  SA.2" kind="DISCONNECTOR" retained="false" open="false" node1="2" node2="32"/>
        <switch id=".DOELP7_.DOEL   7TR755    SA.2" name=".DOEL   7TR755    SA.2" kind="DISCONNECTOR" retained="false" open="false" node1="2" node2="30"/>
        <switch id=".DOELP7_.DOEL   7.MERC.4  SA.2" name=".DOEL   7.MERC.4  SA.2" kind="DISCONNECTOR" retained="false" open="true" node1="2" node2="24"/>
        <switch id=".DOELP7_.DOEL   7.MERC.1  SA.2" name=".DOEL   7.MERC.1  SA.2" kind="DISCONNECTOR" retained="false" open="true" node1="3" node2="18"/>
        <switch id=".DOELP7_.DOEL   7GROUPT2  SA.2" name=".DOEL   7GROUPT2  SA.2" kind="DISCONNECTOR" retained="false" open="false" node1="3" node2="10"/>
        <switch id=".DOELP7_.DOEL   7.MERC.2  SA.2" name=".DOEL   7.MERC.2  SA.2" kind="DISCONNECTOR" retained="false" open="true" node1="3" node2="20"/>
        <switch id=".DOELP7_.DOEL   7GROUPT1  SA.2" name=".DOEL   7GROUPT1  SA.2" kind="DISCONNECTOR" retained="false" open="true" node1="3" node2="8"/>
        <switch id=".DOELP7_.DOEL   7COUPL.A  SA.2" name=".DOEL   7COUPL.A  SA.2" kind="DISCONNECTOR" retained="false" open="false" node1="3" node2="4"/>
        <switch id=".DOELP7_.DOEL   7.ZAND.2  SA.2" name=".DOEL   7.ZAND.2  SA.2" kind="DISCONNECTOR" retained="false" open="true" node1="3" node2="34"/>
        <switch id=".DOELP7_.DOEL   7TRO.2BA  SA.2A" name=".DOEL   7TRO.2BA  SA.2A" kind="DISCONNECTOR" retained="false" open="false" node1="28" node2="3"/>
        <switch id=".DOELP7_.DOEL   7COUPL.A  DJ" name=".DOEL   7COUPL.A  DJ" kind="BREAKER" retained="true" open="false" node1="4" node2="5"/>
        <switch id=".DOELP7_.DOEL   7COUPL.B  DJ" name=".DOEL   7COUPL.B  DJ" kind="BREAKER" retained="true" open="false" node1="6" node2="7"/>
        <switch id=".DOELP7_.DOEL   7GROUPT1  DJ" name=".DOEL   7GROUPT1  DJ" kind="BREAKER" retained="true" open="false" node1="8" node2="9"/>
        <switch id=".DOELP7_.DOEL   7GROUPT2  DJ" name=".DOEL   7GROUPT2  DJ" kind="BREAKER" retained="true" open="false" node1="10" node2="11"/>
        <switch id=".DOELP7_.DOEL   7GROUPT3  DJ" name=".DOEL   7GROUPT3  DJ" kind="BREAKER" retained="true" open="false" node1="12" node2="13"/>
        <switch id=".DOELP7_.DOEL   1GROUPT3  COUPLEUR" name=".DOEL   1GROUPT3  COUPLEUR" kind="BREAKER" retained="true" open="true" node1="13" node2="14"/>
        <switch id=".DOELP7_.DOEL   7GROUPT4  DJ" name=".DOEL   7GROUPT4  DJ" kind="BREAKER" retained="true" open="false" node1="15" node2="16"/>
        <switch id=".DOELP7_.DOEL   1GROUPT4  COUPLEUR" name=".DOEL   1GROUPT4  COUPLEUR" kind="BREAKER" retained="true" open="false" node1="16" node2="17"/>
        <switch id=".DOELP7_.DOEL   7.MERC.1  DJ" name=".DOEL   7.MERC.1  DJ" kind="BREAKER" retained="true" open="false" node1="18" node2="19"/>
        <switch id=".DOELP7_.DOEL   7.MERC.2  DJ" name=".DOEL   7.MERC.2  DJ" kind="BREAKER" retained="true" open="true" node1="20" node2="21"/>
        <switch id=".DOELP7_.DOEL   7.MERC.3  DJ" name=".DOEL   7.MERC.3  DJ" kind="BREAKER" retained="true" open="false" node1="22" node2="23"/>
        <switch id=".DOELP7_.DOEL   7.MERC.4  DJ" name=".DOEL   7.MERC.4  DJ" kind="BREAKER" retained="true" open="false" node1="24" node2="25"/>
        <switch id=".DOELP7_.DOEL   7TRO.1BA  DJ" name=".DOEL   7TRO.1BA  DJ" kind="BREAKER" retained="true" open="false" node1="27" node2="26"/>
        <switch id=".DOELP7_.DOEL   7TRO.2BA  DJ" name=".DOEL   7TRO.2BA  DJ" kind="BREAKER" retained="true" open="false" node1="29" node2="28"/>
        <switch id=".DOELP7_.DOEL   7TR755    DJ" name=".DOEL   7TR755    DJ" kind="BREAKER" retained="true" open="false" node1="30" node2="31"/>
        <switch id=".DOELP7_.DOEL   7.ZAND.1  DJ" name=".DOEL   7.ZAND.1  DJ" kind="BREAKER" retained="true" open="false" node1="32" node2="33"/>
        <switch id=".DOELP7_.DOEL   7.ZAND.2  DJ" name=".DOEL   7.ZAND.2  DJ" kind="BREAKER" retained="true" open="false" node1="34" node2="35"/>
      </nodeBreakerTopology>
      <generator id=".DOEL7ALT1" energySource="NUCLEAR" minP="196" maxP="412" voltageRegulatorOn="true" targetP="412" targetQ="13" targetV="404.45782470703125" node="9" p="-412" q="-5.3330731391906738">
        <property name="genreCvg" value="NUCLEAIRE"/>
        <reactiveCapabilityCurve>
          <point p="196" minQ="-100" maxQ="318"/>
          <point p="412" minQ="-95" maxQ="240"/>
        </reactiveCapabilityCurve>
      </generator>
      <generator id=".DOEL7ALT2" energySource="NUCLEAR" minP="196" maxP="412" voltageRegulatorOn="true" targetP="412" targetQ="20" targetV="404.45782470703125" node="11" p="-412" q="-5.3330731391906738">
        <property name="genreCvg" value="NUCLEAIRE"/>
        <reactiveCapabilityCurve>
          <point p="196" minQ="-100" maxQ="339"/>
          <point p="412" minQ="-95" maxQ="263"/>
        </reactiveCapabilityCurve>
      </generator>
      <generator id=".DOEL7ALT3" energySource="NUCLEAR" minP="200" maxP="1056" voltageRegulatorOn="false" targetP="0" targetQ="0" targetV="0" node="14" p="-0">
        <property name="genreCvg" value="NUCLEAIRE"/>
        <reactiveCapabilityCurve>
          <point p="200" minQ="-287" maxQ="854"/>
          <point p="1056" minQ="-125" maxQ="523"/>
        </reactiveCapabilityCurve>
      </generator>
      <generator id=".DOEL7ALT4" energySource="NUCLEAR" minP="250" maxP="1056" voltageRegulatorOn="true" targetP="1056" targetQ="-17" targetV="404.45782470703125" node="17" p="-1056" q="-5.3330731391906738">
        <property name="genreCvg" value="NUCLEAIRE"/>
        <reactiveCapabilityCurve>
          <point p="250" minQ="-272" maxQ="850"/>
          <point p="1056" minQ="-100.00001525878906" maxQ="570"/>
        </reactiveCapabilityCurve>
      </generator>
      <load id=".DOEL7TR755" loadType="UNDEFINED" p0="0" q0="0" node="31" p="0" q="0"/>
      <load id=".DOEL7.ZAND.1" loadType="UNDEFINED" p0="-383.59512329101562" q0="51.939521789550781" node="33" p="-383.59512329101562" q="51.939521789550781"/>
      <load id=".DOEL7.ZAND.2" loadType="UNDEFINED" p0="-373.31106567382812" q0="48.943012237548828" node="35" p="-373.31106567382812" q="48.943012237548828"/>
    </voltageLevel>
  </substation>
  <substation id=".DROG" country="BE">
    <property name="paysCvg" value="BELGIQUE"/>
    <property name="regionCvg" value="BELGIQUE"/>
    <voltageLevel id=".DROGP7" nominalV="380" lowVoltageLimit="390" highVoltageLimit="420.00003051757812" topologyKind="NODE_BREAKER">
      <nodeBreakerTopology nodeCount="5">
        <busbarSection id=".DROGP7_1" name="1" node="0" v="404.243896484375" angle="18.487213262318274"/>
        <switch id=".DROGP7_.DROG7ZDROG.1SA.1F" name=".DROG7ZDROG.1SA.1F" kind="DISCONNECTOR" retained="false" open="false" fictitious="true" node1="0" node2="4"/>
        <switch id=".DROGP7_.DROG7TR751SA.1F" name=".DROG7TR751SA.1F" kind="DISCONNECTOR" retained="false" open="false" fictitious="true" node1="0" node2="2"/>
        <switch id=".DROGP7_.DROG7TR751DJF" name=".DROG7TR751DJF" kind="BREAKER" retained="true" open="false" fictitious="true" node1="2" node2="1"/>
        <switch id=".DROGP7_.DROG   7ZDROG.1  DJ" name=".DROG   7ZDROG.1  DJ" kind="BREAKER" retained="true" open="false" node1="4" node2="3"/>
      </nodeBreakerTopology>
      <load id=".DROG7Y751" loadType="UNDEFINED" p0="257.55087280273438" q0="-17.927606582641602" node="1" p="257.55087280273438" q="-17.927606582641602"/>
    </voltageLevel>
  </substation>
  <substation id=".EEKL" country="BE">
    <property name="paysCvg" value="BELGIQUE"/>
    <property name="regionCvg" value="BELGIQUE"/>
    <voltageLevel id=".EEKLP7" nominalV="380" lowVoltageLimit="390" highVoltageLimit="420.00003051757812" topologyKind="NODE_BREAKER">
      <nodeBreakerTopology nodeCount="5">
        <busbarSection id=".EEKLP7_1" name="1" node="0" v="405.080078125" angle="16.965570058644495"/>
        <switch id=".EEKLP7_.EEKL7TR751SA.1F" name=".EEKL7TR751SA.1F" kind="DISCONNECTOR" retained="false" open="false" fictitious="true" node1="0" node2="1"/>
        <switch id=".EEKLP7_.EEKL7Z.EEK.1SA.1F" name=".EEKL7Z.EEK.1SA.1F" kind="DISCONNECTOR" retained="false" open="false" fictitious="true" node1="0" node2="3"/>
        <switch id=".EEKLP7_.EEKL   7TR751    DJ" name=".EEKL   7TR751    DJ" kind="BREAKER" retained="true" open="false" node1="1" node2="2"/>
        <switch id=".EEKLP7_.EEKL7Z.EEK.1DJF" name=".EEKL7Z.EEK.1DJF" kind="BREAKER" retained="true" open="false" fictitious="true" node1="3" node2="4"/>
      </nodeBreakerTopology>
      <load id=".EEKL7Y751" loadType="UNDEFINED" p0="-28.429952621459961" q0="-43.796699523925781" node="2" p="-28.429952621459961" q="-43.796699523925781"/>
    </voltageLevel>
  </substation>
  <substation id=".ENSD" country="DE">
    <property name="paysCvg" value="ALLEMAGNE"/>
    <property name="regionCvg" value="ALLEMAGNE"/>
    <voltageLevel id=".ENSDP7" nominalV="380" lowVoltageLimit="390" highVoltageLimit="420.00003051757812" topologyKind="NODE_BREAKER">
      <nodeBreakerTopology nodeCount="20">
        <busbarSection id=".ENSDP7_1" name="1" node="0" v="407.88351440429688" angle="25.38158913505622"/>
        <busbarSection id=".ENSDP7_2" name="2" node="1"/>
...